data_image0
_cell_length_a       7.56673
_cell_length_b       8.56852
_cell_length_c       12.8205
_cell_angle_alpha    80.8197
_cell_angle_beta     89.1956
_cell_angle_gamma    74.9411

_symmetry_space_group_name_H-M    "P 1"
_symmetry_int_tables_number       1

loop_
  _symmetry_equiv_pos_as_xyz
  'x, y, z'

loop_
  _atom_site_label
  _atom_site_occupancy
  _atom_site_fract_x
  _atom_site_fract_y
  _atom_site_fract_z
  _atom_site_thermal_displace_type
  _atom_site_B_iso_or_equiv
  _atom_site_type_symbol
  Li1      1.0000 0.83333  0.83333  0.16667  Biso   1.000  Li
  Mn1      1.0000 0.33333  0.58333  0.79167  Biso   1.000  Mn
  O1       1.0000 0.59375  0.71354  0.98698  Biso   1.000  O
  O2       1.0000 0.07292  0.45313  0.59636  Biso   1.000  O
  Li2      1.0000 0.83333  0.83333  0.66667  Biso   1.000  Li
  Li3      1.0000 0.33333  0.58333  0.29167  Biso   1.000  Li
  O3       1.0000 0.59375  0.71354  0.48698  Biso   1.000  O
  O4       1.0000 0.07292  0.45313  0.09636  Biso   1.000  O
  Mn2      1.0000 0.66667  0.66667  0.33333  Biso   1.000  Mn
  Li4      1.0000 0.16667  0.41667  0.95833  Biso   1.000  Li
  O5       1.0000 0.42708  0.54687  0.15364  Biso   1.000  O
  O6       1.0000 0.90625  0.28646  0.76302  Biso   1.000  O
  Li5      1.0000 0.50000  0.50000  1.00000  Biso   1.000  Li
  Ni1      1.0000 0.00000  0.25000  0.62500  Biso   1.000  Ni
  O7       1.0000 0.26041  0.38021  0.82031  Biso   1.000  O
  O8       1.0000 0.73959  0.11979  0.42969  Biso   1.000  O
  Ni2      1.0000 0.33333  0.83333  0.41667  Biso   1.000  Ni
  Li6      1.0000 0.83333  0.58333  0.04167  Biso   1.000  Li
  O9       1.0000 0.09375  0.71354  0.23698  Biso   1.000  O
  O10      1.0000 0.57292  0.45313  0.84636  Biso   1.000  O
  Mn3      1.0000 0.16667  0.66667  0.08333  Biso   1.000  Mn
  Li7      1.0000 0.66667  0.41667  0.70833  Biso   1.000  Li
  O11      1.0000 0.92708  0.54687  0.90364  Biso   1.000  O
  O12      1.0000 0.40625  0.28646  0.51302  Biso   1.000  O
  Mn4      1.0000 0.83333  0.33333  0.41667  Biso   1.000  Mn
  Li8      1.0000 0.33333  0.08333  0.04167  Biso   1.000  Li
  O13      1.0000 0.59375  0.21354  0.23698  Biso   1.000  O
  O14      1.0000 0.07292  0.95313  0.84636  Biso   1.000  O
  Li9      1.0000 0.66667  0.16667  0.08333  Biso   1.000  Li
  Mn5      1.0000 0.16667  0.91667  0.70833  Biso   1.000  Mn
  O15      1.0000 0.42708  0.04687  0.90364  Biso   1.000  O
  O16      1.0000 0.90625  0.78646  0.51302  Biso   1.000  O
  Mn6      1.0000 0.66667  0.66667  0.83333  Biso   1.000  Mn
  Li10     1.0000 0.16667  0.41667  0.45833  Biso   1.000  Li
  O17      1.0000 0.42708  0.54687  0.65364  Biso   1.000  O
  O18      1.0000 0.90625  0.28646  0.26302  Biso   1.000  O
  Mn7      1.0000 0.50000  0.50000  0.50000  Biso   1.000  Mn
  Li11     1.0000 0.00000  0.25000  0.12500  Biso   1.000  Li
  O19      1.0000 0.26041  0.38021  0.32031  Biso   1.000  O
  O20      1.0000 0.73959  0.11979  0.92969  Biso   1.000  O
  Li12     1.0000 0.33333  0.33333  0.16667  Biso   1.000  Li
  Li13     1.0000 0.83333  0.08333  0.79167  Biso   1.000  Li
  O21      1.0000 0.09375  0.21354  0.98698  Biso   1.000  O
  O22      1.0000 0.57292  0.95313  0.59636  Biso   1.000  O
  Li14     1.0000 0.33333  0.83333  0.91667  Biso   1.000  Li
  Mn8      1.0000 0.83333  0.58333  0.54167  Biso   1.000  Mn
  O23      1.0000 0.09375  0.71354  0.73698  Biso   1.000  O
  O24      1.0000 0.57292  0.45313  0.34636  Biso   1.000  O
  Li15     1.0000 0.16667  0.66667  0.58333  Biso   1.000  Li
  Li16     1.0000 0.66667  0.41667  0.20833  Biso   1.000  Li
  O25      1.0000 0.92708  0.54687  0.40364  Biso   1.000  O
  O26      1.0000 0.40625  0.28646  0.01302  Biso   1.000  O
  Mn9      1.0000 1.00000  0.50000  0.25000  Biso   1.000  Mn
  Li17     1.0000 0.50000  0.25000  0.87500  Biso   1.000  Li
  O27      1.0000 0.76041  0.38021  0.07031  Biso   1.000  O
  O28      1.0000 0.23959  0.11979  0.67969  Biso   1.000  O
  Li18     1.0000 0.83333  0.33333  0.91667  Biso   1.000  Li
  Mn10     1.0000 0.33333  0.08333  0.54167  Biso   1.000  Mn
  O29      1.0000 0.59375  0.21354  0.73698  Biso   1.000  O
  O30      1.0000 0.07292  0.95313  0.34636  Biso   1.000  O
  Li19     1.0000 0.66667  0.16667  0.58333  Biso   1.000  Li
  Li20     1.0000 0.16667  0.91667  0.20833  Biso   1.000  Li
  O31      1.0000 0.42708  0.04687  0.40364  Biso   1.000  O
  O32      1.0000 0.90625  0.78646  0.01302  Biso   1.000  O
  Li21     1.0000 0.50000  1.00000  0.25000  Biso   1.000  Li
  Li22     1.0000 0.00000  0.75000  0.87500  Biso   1.000  Li
  O33      1.0000 0.26041  0.88021  0.07031  Biso   1.000  O
  O34      1.0000 0.73959  0.61979  0.67969  Biso   1.000  O
  Li23     1.0000 0.33333  0.33333  0.66667  Biso   1.000  Li
  Mn11     1.0000 0.83333  0.08333  0.29167  Biso   1.000  Mn
  O35      1.0000 0.09375  0.21354  0.48698  Biso   1.000  O
  O36      1.0000 0.57292  0.95313  0.09636  Biso   1.000  O
  Ni3      1.0000 0.16667  0.16667  0.33333  Biso   1.000  Ni
  Mn12     1.0000 0.66667  0.91667  0.95833  Biso   1.000  Mn
  O37      1.0000 0.92708  0.04687  0.15364  Biso   1.000  O
  O38      1.0000 0.40625  0.78646  0.76302  Biso   1.000  O
  Li24     1.0000 1.00000  1.00000  1.00000  Biso   1.000  Li
  Mn13     1.0000 0.50000  0.75000  0.62500  Biso   1.000  Mn
  O39      1.0000 0.76041  0.88021  0.82031  Biso   1.000  O
  O40      1.0000 0.23959  0.61979  0.42969  Biso   1.000  O
  Mn14     1.0000 1.00000  0.50000  0.75000  Biso   1.000  Mn
  Mn15     1.0000 0.50000  0.25000  0.37500  Biso   1.000  Mn
  O41      1.0000 0.76041  0.38021  0.57031  Biso   1.000  O
  O42      1.0000 0.23959  0.11979  0.17969  Biso   1.000  O
  Mn16     1.0000 0.50000  1.00000  0.75000  Biso   1.000  Mn
  Li25     1.0000 0.00000  0.75000  0.37500  Biso   1.000  Li
  O43      1.0000 0.26041  0.88021  0.57031  Biso   1.000  O
  O44      1.0000 0.73959  0.61979  0.17969  Biso   1.000  O
  Li26     1.0000 0.16667  0.16667  0.83333  Biso   1.000  Li
  Li27     1.0000 0.66667  0.91667  0.45833  Biso   1.000  Li
  O45      1.0000 0.92708  0.04687  0.65364  Biso   1.000  O
  O46      1.0000 0.40625  0.78646  0.26302  Biso   1.000  O
  Li28     1.0000 1.00000  1.00000  0.50000  Biso   1.000  Li
  Ni4      1.0000 0.50000  0.75000  0.12500  Biso   1.000  Ni
  O47      1.0000 0.76041  0.88021  0.32031  Biso   1.000  O
  O48      1.0000 0.23959  0.61979  0.92969  Biso   1.000  O
