data_image0
_cell_length_a       7.50486
_cell_length_b       8.56168
_cell_length_c       12.8528
_cell_angle_alpha    81.2542
_cell_angle_beta     89.7781
_cell_angle_gamma    76.3122

_symmetry_space_group_name_H-M    "P 1"
_symmetry_int_tables_number       1

loop_
  _symmetry_equiv_pos_as_xyz
  'x, y, z'

loop_
  _atom_site_label
  _atom_site_occupancy
  _atom_site_fract_x
  _atom_site_fract_y
  _atom_site_fract_z
  _atom_site_thermal_displace_type
  _atom_site_B_iso_or_equiv
  _atom_site_type_symbol
  Li1      1.0000 0.83498  0.84433  0.16117  Biso   1.000  Li
  Li2      1.0000 0.83845  0.83922  0.66216  Biso   1.000  Li
  Li3      1.0000 0.32945  0.58584  0.28565  Biso   1.000  Li
  Li4      1.0000 0.16844  0.40566  0.96548  Biso   1.000  Li
  Li5      1.0000 0.47462  0.48794  0.00008  Biso   1.000  Li
  Li6      1.0000 0.83833  0.57399  0.04115  Biso   1.000  Li
  Li7      1.0000 0.65933  0.40152  0.72258  Biso   1.000  Li
  Li8      1.0000 0.33656  0.07810  0.03817  Biso   1.000  Li
  Li9      1.0000 0.66250  0.16377  0.07615  Biso   1.000  Li
  Li10     1.0000 0.17097  0.42259  0.45113  Biso   1.000  Li
  Li11     1.0000 0.03103  0.23161  0.11923  Biso   1.000  Li
  Li12     1.0000 0.33190  0.31704  0.15835  Biso   1.000  Li
  Li13     1.0000 0.83936  0.09383  0.79873  Biso   1.000  Li
  Li14     1.0000 0.32375  0.84337  0.92028  Biso   1.000  Li
  Li15     1.0000 0.15996  0.66996  0.57991  Biso   1.000  Li
  Li16     1.0000 0.65141  0.41733  0.19380  Biso   1.000  Li
  Li17     1.0000 0.51670  0.23730  0.88767  Biso   1.000  Li
  Li18     1.0000 0.86057  0.30931  0.93080  Biso   1.000  Li
  Li19     1.0000 0.67195  0.16297  0.59128  Biso   1.000  Li
  Li20     1.0000 0.16209  0.93033  0.20309  Biso   1.000  Li
  Li21     1.0000 0.49566  0.00315  0.23586  Biso   1.000  Li
  Li22     1.0000 0.00447  0.75983  0.87953  Biso   1.000  Li
  Li23     1.0000 0.34149  0.33467  0.67699  Biso   1.000  Li
  Li24     1.0000 0.00357  0.01002  0.00658  Biso   1.000  Li
  Li25     1.0000 0.00013  0.75989  0.37495  Biso   1.000  Li
  Li26     1.0000 0.16621  0.16700  0.85026  Biso   1.000  Li
  Li27     1.0000 0.68347  0.91950  0.45857  Biso   1.000  Li
  Li28     1.0000 0.98530  0.99157  0.49873  Biso   1.000  Li
  Mn1      1.0000 0.32558  0.58566  0.79988  Biso   1.000  Mn
  Mn2      1.0000 0.66188  0.68451  0.32290  Biso   1.000  Mn
  Mn3      1.0000 0.16203  0.67026  0.08032  Biso   1.000  Mn
  Mn4      1.0000 0.83225  0.33443  0.41224  Biso   1.000  Mn
  Mn5      1.0000 0.14840  0.92470  0.71167  Biso   1.000  Mn
  Mn6      1.0000 0.67247  0.65866  0.84271  Biso   1.000  Mn
  Mn7      1.0000 0.48696  0.49813  0.50479  Biso   1.000  Mn
  Mn8      1.0000 0.83979  0.59363  0.53942  Biso   1.000  Mn
  Mn9      1.0000 0.99986  0.50025  0.24071  Biso   1.000  Mn
  Mn10     1.0000 0.33031  0.08849  0.54146  Biso   1.000  Mn
  Mn11     1.0000 0.83328  0.07779  0.28469  Biso   1.000  Mn
  Mn12     1.0000 0.68238  0.91483  0.96240  Biso   1.000  Mn
  Mn13     1.0000 0.50538  0.75204  0.62882  Biso   1.000  Mn
  Mn14     1.0000 0.99349  0.49855  0.75289  Biso   1.000  Mn
  Mn15     1.0000 0.50031  0.24631  0.37023  Biso   1.000  Mn
  Mn16     1.0000 0.51685  0.01234  0.75504  Biso   1.000  Mn
  O1       1.0000 0.60039  0.70640  0.97284  Biso   1.000  O
  O2       1.0000 0.06327  0.46943  0.61261  Biso   1.000  O
  O3       1.0000 0.58624  0.70463  0.48170  Biso   1.000  O
  O4       1.0000 0.08006  0.47430  0.10701  Biso   1.000  O
  O5       1.0000 0.39842  0.56153  0.13580  Biso   1.000  O
  O6       1.0000 0.92332  0.31118  0.76904  Biso   1.000  O
  O7       1.0000 0.22993  0.40534  0.80503  Biso   1.000  O
  O8       1.0000 0.74171  0.13630  0.42832  Biso   1.000  O
  O9       1.0000 0.08442  0.69328  0.21704  Biso   1.000  O
  O10      1.0000 0.55998  0.48118  0.85271  Biso   1.000  O
  O11      1.0000 0.90217  0.54172  0.88397  Biso   1.000  O
  O12      1.0000 0.41784  0.28534  0.51325  Biso   1.000  O
  O13      1.0000 0.59123  0.20142  0.24237  Biso   1.000  O
  O14      1.0000 0.09453  0.96220  0.83784  Biso   1.000  O
  O15      1.0000 0.45141  0.02452  0.89295  Biso   1.000  O
  O16      1.0000 0.91429  0.77979  0.52167  Biso   1.000  O
  O17      1.0000 0.41812  0.55891  0.65442  Biso   1.000  O
  O18      1.0000 0.91247  0.29617  0.27256  Biso   1.000  O
  O19      1.0000 0.26670  0.35727  0.31444  Biso   1.000  O
  O20      1.0000 0.75712  0.09964  0.94168  Biso   1.000  O
  O21      1.0000 0.10549  0.20367  0.98407  Biso   1.000  O
  O22      1.0000 0.58385  0.94813  0.61659  Biso   1.000  O
  O23      1.0000 0.09655  0.70988  0.73261  Biso   1.000  O
  O24      1.0000 0.58590  0.43948  0.35787  Biso   1.000  O
  O25      1.0000 0.90261  0.54606  0.37907  Biso   1.000  O
  O26      1.0000 0.40577  0.28163  0.01990  Biso   1.000  O
  O27      1.0000 0.74160  0.37361  0.05811  Biso   1.000  O
  O28      1.0000 0.24483  0.11405  0.67984  Biso   1.000  O
  O29      1.0000 0.58115  0.20603  0.72877  Biso   1.000  O
  O30      1.0000 0.07362  0.97245  0.35149  Biso   1.000  O
  O31      1.0000 0.41524  0.04962  0.40617  Biso   1.000  O
  O32      1.0000 0.92550  0.79004  0.02071  Biso   1.000  O
  O33      1.0000 0.25750  0.85420  0.06538  Biso   1.000  O
  O34      1.0000 0.74812  0.62797  0.70062  Biso   1.000  O
  O35      1.0000 0.06565  0.22267  0.46979  Biso   1.000  O
  O36      1.0000 0.58323  0.93598  0.09305  Biso   1.000  O
  O37      1.0000 0.90203  0.05306  0.15610  Biso   1.000  O
  O38      1.0000 0.41883  0.78714  0.76869  Biso   1.000  O
  O39      1.0000 0.75094  0.85331  0.82401  Biso   1.000  O
  O40      1.0000 0.26697  0.61535  0.44416  Biso   1.000  O
  O41      1.0000 0.74365  0.39178  0.55246  Biso   1.000  O
  O42      1.0000 0.24837  0.12361  0.20322  Biso   1.000  O
  O43      1.0000 0.26660  0.87935  0.56721  Biso   1.000  O
  O44      1.0000 0.72198  0.63125  0.18952  Biso   1.000  O
  O45      1.0000 0.93359  0.03274  0.64782  Biso   1.000  O
  O46      1.0000 0.42933  0.78651  0.27524  Biso   1.000  O
  O47      1.0000 0.75683  0.88875  0.31099  Biso   1.000  O
  O48      1.0000 0.24509  0.62809  0.93196  Biso   1.000  O
  Ni1      1.0000 0.99073  0.25349  0.62620  Biso   1.000  Ni
  Ni2      1.0000 0.32166  0.83467  0.41235  Biso   1.000  Ni
  Ni3      1.0000 0.16563  0.16622  0.33019  Biso   1.000  Ni
  Ni4      1.0000 0.49370  0.74646  0.12013  Biso   1.000  Ni
